
     RDKit          3D

 22 23  0  0  0  0  0  0  0  0999 V2000
   -1.5949    0.0448   -1.0420 C   0  0  0  0  0  0  0  0  0  0  0  0
   -2.9712   -0.1406   -0.8880 C   0  0  0  0  0  0  0  0  0  0  0  0
   -3.5022   -0.4831    0.3603 C   0  0  0  0  0  0  0  0  0  0  0  0
   -2.6464   -0.6364    1.4641 C   0  0  0  0  0  0  0  0  0  0  0  0
   -1.2678   -0.4496    1.3076 C   0  0  0  0  0  0  0  0  0  0  0  0
   -0.7317   -0.1192    0.0524 C   0  0  0  0  0  0  0  0  0  0  0  0
    0.7239    0.0956   -0.1102 C   0  0  0  0  0  0  0  0  0  0  0  0
    1.1755    1.3374   -0.5788 C   0  0  0  0  0  0  0  0  0  0  0  0
    2.5398    1.5905   -0.7312 C   0  0  0  0  0  0  0  0  0  0  0  0
    3.4786    0.5947   -0.4188 C   0  0  0  0  0  0  0  0  0  0  0  0
    3.0397   -0.6612    0.0399 C   0  0  0  0  0  0  0  0  0  0  0  0
    1.6623   -0.9154    0.1917 C   0  0  0  0  0  0  0  0  0  0  0  0
    1.1212   -2.5196    0.6996 Cl  0  0  0  0  0  0  0  0  0  0  0  0
    4.2179   -1.9206    0.4170 Cl  0  0  0  0  0  0  0  0  0  0  0  0
    5.2024    0.9198   -0.6100 Cl  0  0  0  0  0  0  0  0  0  0  0  0
    3.0439    3.1724   -1.3135 Cl  0  0  0  0  0  0  0  0  0  0  0  0
   -3.2733   -1.0559    3.0525 Cl  0  0  0  0  0  0  0  0  0  0  0  0
   -5.2393   -0.7085    0.5143 Cl  0  0  0  0  0  0  0  0  0  0  0  0
   -1.2008    0.3079   -2.0160 H   0  0  0  0  0  0  0  0  0  0  0  0
   -3.6254   -0.0173   -1.7418 H   0  0  0  0  0  0  0  0  0  0  0  0
   -0.6145   -0.5542    2.1656 H   0  0  0  0  0  0  0  0  0  0  0  0
    0.4623    2.1185   -0.8147 H   0  0  0  0  0  0  0  0  0  0  0  0
  1  2  2  0
  2  3  1  0
  3  4  2  0
  4  5  1  0
  5  6  2  0
  6  7  1  0
  7  8  2  0
  8  9  1  0
  9 10  2  0
 10 11  1  0
 11 12  2  0
 12 13  1  0
 11 14  1  0
 10 15  1  0
  9 16  1  0
  4 17  1  0
  3 18  1  0
  6  1  1  0
 12  7  1  0
  1 19  1  0
  2 20  1  0
  5 21  1  0
  8 22  1  0
M  END
$$$$
